*Heading
** Job name: Job-1 Model name: Model-1
** Generated by: Abaqus/CAE Student Edition Unofficial Packaging Version
*Preprint, echo=NO, model=NO, history=NO, contact=NO
**
** PARTS
**
*Part, name=Part-1
*Node
      1, 0.0489316322, 0.0926533043
      2, 0.0501109585,  0.095374018
      3, 0.0499388315, 0.0968696699
      4, 0.0481722876, 0.0992513597
      5, 0.0467909463, 0.0998501182
      6, 0.0452881232, 0.0999403223
      7, 0.0426358655, 0.0986141935
      8, 0.0418063328, 0.0973578095
      9, 0.0414565355, 0.0958934799
     10, 0.0423019603, 0.0930512398
     11, 0.0433952063, 0.0920161381
     12, 0.0462793745, 0.0913271755
     13, 0.0477224179, 0.0917564034
     14, 0.00905163214, 0.0527733043
     15, 0.0102309603, 0.0554940142
     16, 0.0100588314, 0.0569896735
     17, 0.00829228945, 0.0593713559
     18, 0.00691094715, 0.0599701181
     19, 0.0054081222, 0.0600603223
     20, 0.00275586429, 0.0587341934
** ... 892 like lines cut
*Element, type=CPS4R
  1, 454, 659, 337, 314
  2,   9, 315, 314, 337
  3, 315,   9,   8, 667
  4,   7, 618, 667,   8
  5, 667, 618, 895, 617
  6, 316, 455, 617, 531
  7, 536, 810, 619, 537
  8, 612, 619,   4, 335
  9, 619, 612, 538, 537
 10, 519,   2, 334, 518
 11, 886, 787, 511, 512
 12, 887, 892, 905, 510
 13, 632, 610, 685, 888
 14, 508, 884, 883, 507
 15, 882, 197, 409, 881
 16, 492, 491, 881, 878
 17, 496, 495, 385, 133
 18, 496, 133, 132, 497
 19, 497, 132, 384, 498
 20, 503,  68,  67, 504
** ... 623 like lines cut
*Nset, nset=Set-2, generate
   1,  912,    1
*Elset, elset=Set-2, generate
   1,  643,    1
** Section: Section-1
*Solid Section, elset=Set-2, material=Material-1
9.4,
*End Part
**  
**
** ASSEMBLY
**
*Assembly, name=Assembly
**  
*Instance, name=Part-1-1, part=Part-1
*End Instance
**  
*End Assembly
** 
** MATERIALS
** 
*Material, name=Material-1
*Elastic
1.,0.
