*Heading
** Job name: Job-1 Model name: Model-1
** Generated by: Abaqus/CAE Student Edition Unofficial Packaging Version
*Preprint, echo=NO, model=NO, history=NO, contact=NO
**
** PARTS
**
*Part, name=Part-1
*Node
      1, 0.0399019457, 0.0558073707
      2, 0.0412369296, 0.0558181442
      3, 0.0425267033, 0.0585266501
      4, 0.0406031683, 0.0604306608
      5, 0.0386257954, 0.0585123412
      6, 0.0409713462, 0.0521290414
      7,  0.041900225, 0.0530908294
      8, 0.0392668843,  0.053137213
      9, 0.0453839935, 0.0597554147
     10, 0.0455669761, 0.0610587671
     11, 0.0425413586, 0.0622766204
     12, 0.0386850946, 0.0623647012
     13, 0.0375226215, 0.0615164079
     14, 0.0356384143, 0.0610590912
     15, 0.0355961397, 0.0597587302
     16, 0.0407426953, 0.0504437499
     17, 0.0424074978, 0.0504437499
     18, 0.0428920984, 0.0520022325
     19, 0.0375226215,  0.051546406
     20, 0.0377368107, 0.0504437499
** ... 972 like lines cut
*Element, type=CPS4R
  1, 376,   1, 377, 803
  2, 377,   2, 378, 803
  3, 378,   3, 379, 803
  4, 379,   4, 380, 803
  5, 380,   5, 376, 803
  6, 381,   6, 382, 804
  7, 382,   7, 383, 804
  8, 383,   2, 377, 804
  9, 377,   1, 384, 804
 10, 384,   8, 381, 804
 11, 385,   9, 386, 805
 12, 386,  10, 387, 805
 13, 387,  11, 388, 805
 14, 388,   4, 379, 805
 15, 379,   3, 385, 805
 16, 380,   4, 389, 806
 17, 389,  12,  13, 806
 18,  13,  14, 390, 806
 19, 390,  15, 391, 806
 20, 391,   5, 380, 806
** ... 713 like lines cut
*End Part
**  
**
** ASSEMBLY
**
*Assembly, name=Assembly
**  
*Instance, name=Part-1-1, part=Part-1
*End Instance
**  
*End Assembly
** 
** MATERIALS
** 
*Material, name=Material-1
*Elastic
1.,0.
